/batch
/config,noeldb,1     ! force off writing results to database
*get,_wallstrt,active,,time,wall
! ANSYS input file written by Workbench version 2025 R2
! File used for geometry attach: C:\Users\YHD\Downloads\Solid_shaft.stp
/title,wbnew--Static Structural (A5)
! ****** Begin Custom Load Command Snippet ******
/COM, ACT Extensions:
/COM,     LSDYNA, 2025.2
/COM,     5f463412-bd3e-484b-87e7-cbc0a665e474, wbex
/COM,/COM,     ANSYSMotion, 2025.2
/COM,     20180725-3f81-49eb-9f31-41364844c769, wbex
/COM,
! ****** End   Custom Load Command Snippet ******
*DIM,_wb_ProjectScratch_dir,string,248
_wb_ProjectScratch_dir(1) = 'C:\Users\YHD\AppData\Local\Temp\WB_YHD_21312_2\_ProjectScratch\ScrE234\'
*DIM,_wb_SolverFiles_dir,string,248
_wb_SolverFiles_dir(1) = 'C:\Users\YHD\AppData\Local\Temp\WB_YHD_21312_2\wbnew_files\dp0\SYS\MECH\'
*DIM,_wb_userfiles_dir,string,248
_wb_userfiles_dir(1) = 'C:\Users\YHD\AppData\Local\Temp\WB_YHD_21312_2\wbnew_files\user_files\'
/com,--- Data in consistent NMM units. See Solving Units in the help system for more information.
/units,MPA
/nopr
/wb,file,start              !  signify a WB generated input file
/prep7
! Turn off shape checking because checks already performed inside WB mesher.
! See help system for more information.
SHPP,OFF,,NOWARN
/nolist
etcon,set             ! allow ANSYS to choose best KEYOP's for 180x elements, resets any applicable keyopt to MAPDL defaults
/com,*********** Send User Defined Coordinate System(s) ***********
local,12,0,500.,25.,0.,0.,0.,0.
csys,0
/com,*********** Nodes for the whole assembly ***********
nblock,3,,16621
(1i9,3e20.9e3)
        1     9.900000000E+02    -2.418668773E+00     9.441854079E+00
        2     9.900000000E+02     5.267627691E+00    -1.249514264E+01
        3     9.900000000E+02     5.668609287E-01    -2.593878402E+00
        4     9.900000000E+02     3.901937503E+00     9.030395743E+00
        5     9.900000000E+02    -4.789895653E+00     5.381499858E+00
        6     9.900000000E+02    -8.366329087E+00     4.149228386E-01
        7     9.900000000E+02    -3.741689406E+00    -1.451988786E+01
        8     9.900000000E+02     2.056577159E+00    -1.716763973E+01
        9     9.900000000E+02     7.486926242E+00    -1.796749277E+01
       10     9.900000000E+02     1.079483067E+01    -1.357376477E+01
       11     9.900000000E+02     1.302241080E+01    -7.607603149E+00
       12     9.900000000E+02     1.348236602E+01    -7.442566992E-01
       13     9.900000000E+02     1.252532469E+01     5.956780493E+00
       14     9.900000000E+02     7.036431996E+00     1.711467410E+01
       15     9.900000000E+02     1.173654240E+00     1.631187127E+01
       16     9.900000000E+02    -5.059777982E+00     1.430565967E+01
       17     9.900000000E+02    -1.080968151E+01     1.058643395E+01
       18     9.900000000E+02    -1.803611099E+01     4.235619133E-01
       19     9.900000000E+02    -1.422582697E+01    -4.949234229E+00
       20     9.900000000E+02    -9.302464065E+00    -1.008313952E+01
! ... 15091 like lines cut
/wb,elem,start            !  set before creation of elements
/com,*********** Elements for Body 1 'Solid_shaft|PartBody' ***********
et,1,186
keyo,1,2,1          ! set full integration on SOLID186
MAT,1 $ TYPE,1 $ REAL,1 $ SECNUM,1 $ ESYS,0
eblock,11,COMPACT,,3100
(11i9)
        1        3       21       11       12     2398     2380     2390     2389     4054     4091
     4090     4052    11801    11799    11823    11824     4057     4134     4093     4097
        2        3       12       11       21       27       36       35       45     4052     4090
     4091     4054     4152     4182     4183     4154     4056     4096     4092     4133
        3       27       36       35       45       51       60       59       69     4152     4182
     4183     4154     4230     4260     4261     4232     4156     4187     4184     4215
        4       51       60       59       69       75       84       83       93     4230     4260
     4261     4232     4308     4338     4339     4310     4234     4265     4262     4293
        5       75       84       83       93       99      108      107      117     4308     4338
     4339     4310     4386     4416     4417     4388     4312     4343     4340     4371
        6       99      108      107      117      123      132      131      141     4386     4416
     4417     4388     4464     4494     4495     4466     4390     4421     4418     4449
        7      123      132      131      141      147      156      155      165     4464     4494
     4495     4466     4542     4572     4573     4544     4468     4499     4496     4527
        8      147      156      155      165      171      180      179      189     4542     4572
     4573     4544     4620     4650     4651     4622     4546     4577     4574     4605
        9      171      180      179      189      195      204      203      213     4620     4650
     4651     4622     4698     4728     4729     4700     4624     4655     4652     4683
       10      195      204      203      213      219      228      227      237     4698     4728
     4729     4700     4776     4806     4807     4778     4702     4733     4730     4761
! ... 6181 like lines cut
secnum,1    ! reset the section ID to default
! Material Id = {CC16C76E-7895-45E8-92B3-D72E06369E04}
/wb,elem,end               !  done creating elements
toffst,273.15,      ! Temperature offset from absolute zero
/com,*********** Set Reference Temperature ***********
tref,22.
/wb,mat,start              !  starting to send materials
/com,*********** Send Materials ***********
Temperature = 'TEMP' ! Temperature
MP,DENS,1,7.85e-09,	! tonne mm^-3
MP,ALPX,1,1.2e-05,	! C^-1
MP,C,1,434000000,	! mm^2 s^-2 C^-1
MP,KXX,1,60.5,	! tonne mm s^-3 C^-1
MP,RSVX,1,0.00017,	! ohm mm
MP,EX,1,210000,	! tonne s^-2 mm^-1
MP,NUXY,1,0.3,
MP,MURX,1,10000,
MP,UVID,1,d1be1f50-e102-475f-a463-fb5c6a444b35
MP,UMID,1,59002a79-71c2-428e-906b-55d7dbee100e

/wb,mat,end                !  done sending materials
!************************* Model Summary ********************
!Solid_shaft|PartBody,	Structural Steel,	matid,	1
!************************* End Model Summary ********************
! get the diagonal of the bounding box. Needed later for other things
*get,_xmin,node,,mnloc,x
*get,_ymin,node,,mnloc,y
*get,_zmin,node,,mnloc,z
*get,_xmax,node,,mxloc,x
*get,_ymax,node,,mxloc,y
*get,_zmax,node,,mxloc,z
_ASMDIAG=(_xmax-_xmin)*(_xmax-_xmin)+(_ymax-_ymin)*(_ymax-_ymin)+(_zmax-_zmin)*(_zmax-_zmin)
_ASMDIAG=SQRT(_ASMDIAG)
/wb,contact,start          !  starting to send contact
/wb,contact,end            !  done creating contacts
/golist
/wb,load,start             !  starting to send loads
/com,*********** Fixed Supports ***********
CMBLOCK,_FIXEDSU,NODE,       29
(8i10)
      2377     -2440      3134     -3142      4034     -4040     11787    -11896
     11898     11900     11902     11904     11906     11908     11910     11912
     11914     11916     11918     11920     11922     11924     13412     13413
     13415    -13421     13423     15105    -15110
cmsel,s,_FIXEDSU
d,all,all
nsel,all
/com,*********** Create Direct FE , Forces ****
CMBLOCK,_CM31F  ,NODE,        1
(8i10)
      3291
/gst,on,on
fini
*get,_numnode,node,0,count
*get,_numelem,elem,0,count
*get, _MAXELEMNUM, elem, 0, NUM, MAX
*get, _MAXNODENUM, node, 0, NUM, MAX
*get, _MAXELEMTYPE, etyp, 0, NUM, MAX
*get, _MAXREALCONST, rcon, 0, NUM, MAX
/go
/wb,load,end               !  done creating loads
/com,--- Number of total nodes = %_numnode%
/com,--- Number of contact elements = 0
/com,--- Number of spring elements = 0
/com,--- Number of bearing elements = 0
/com,--- Number of solid elements = 3100
/com,--- Number of condensed parts = 0
/com,--- Number of total elements = %_numelem%
*get,_wallbsol,active,,time,wall
/com,****************************************************************************
/com,*************************    SOLUTION       ********************************
/com,****************************************************************************
/solu
antype,0                   ! static analysis
_thickRatio=  1     ! Ratio of thick parts in the model
eqsl,pcg,1e-8,,,,,,1
cntr,print,1               ! print out contact info and also make no initial contact an error
dmpoption,emat,no             ! Don't combine emat file for DANSYS
dmpoption,esav,no             ! Don't combine esav file for DANSYS
nldiag,cont,iter           ! print out contact info each equilibrium iteration
rescontrol,,none                 ! Do not keep any restart files
/com,****************************************************
/com,******************* SOLVE FOR LS 1 OF 1 ****************
/com,**** Set Direct FE , Forces ****
f,_CM31F,fx,0.
f,_CM31F,fy,-600.
f,_CM31F,fz,0.
/nopr
/gopr
nsub,1,1,1
time,1.
outres,erase
outres,all,none
outres,nsol,all,
outres,rsol,all
outres,eangl,all
outres,etmp,all
outres,veng,all
outres,strs,all,
outres,epel,all,
outres,eppl,all,
outres,cont,all,
! *********** WB SOLVE COMMAND ***********
! check interactive state
*get,ANSINTER_,active,,int
*if,ANSINTER_,ne,0,then
/eof
*endif
solve
/com *************** Write FE CONNECTORS ********* 
CEWRITE,file,ce,,INTE
/com,****************************************************
/com,*************** FINISHED SOLVE FOR LS 1 *************
*get,_wallasol,active,,time,wall
/nopr
*get,_numnode,node,0,count
*get,_numelem,elem,0,count
*get, _MAXELEMNUM, elem, 0, NUM, MAX
*get, _MAXNODENUM, node, 0, NUM, MAX,,,INTERNAL
*get, _MAXELEMTYPE, etyp, 0, NUM, MAX
*get, _MAXREALCONST, rcon, 0, NUM, MAX
*get,_NSOLTHREADS,active,0,ntfs
*get,_NSOLPROCESSES,active,0,npfs
/gopr
*get,_PCGITER,active,,solu,cgiter
/post1
xmlo,ENCODING,ISO-8859-1
xmlo,parm
/xml,parm,xml
fini
/gopr
*get,_walldone,active,,time,wall
_preptime=(_wallbsol-_wallstrt)*3600
_solvtime=(_wallasol-_wallbsol)*3600
_posttime=(_walldone-_wallasol)*3600
_totaltim=(_walldone-_wallstrt)*3600
*get,_dlbratio,active,0,solu,dlbr
*get,_combtime,active,0,solu,comb
*get,_ssmode,active,0,solu,ssmm
*get,_ndofs,active,0,solu,ndof
*get,_sol_end_time,active,0,set,time
*if,_sol_end_time,eq,1.000000,then
/fclean				!clean distributed files
*endif
/com,--- Total number of nodes = %_numnode%
/com,--- Total number of elements = %_numelem%
/com,--- Element load balance ratio = %_dlbratio%
/com,--- Time to combine distributed files = %_combtime%
/com,--- Sparse memory mode = %_ssmode%
/com,--- Number of DOF = %_ndofs%
/wb,file,end               ! done with WB generated input
